  Domain # 1: dx =  4000.000 m
WRF V4.4.2 MODEL
git commit 6233639c599119e76fca17dba9ea211af53a0ba9 10 files changed, 192 insertions(+), 159 deletions(-)
DYNAMICS OPTION: Eulerian Mass Coordinate
   alloc_space_field: domain            1 ,               16845668  bytes allocated
  med_initialdata_input: calling input_input
   Input data is acceptable to use: wrfinput_d01
 CURRENT DATE          = 2018-08-15_00:00:00
 SIMULATION START DATE = 2018-08-15_00:00:00
Timing for processing wrfinput file (stream 0) for domain        1:    0.22788 elapsed seconds
Max map factor in domain 1 =  1.00. Scale the dt in the model accordingly.
INPUT LandUse = "USGS"
 LANDUSE TYPE = "USGS" FOUND          61  CATEGORIES           2  SEASONS WATER CATEGORY =           16  SNOW CATEGORY =            0
INITIALIZE THREE Noah LSM RELATED TABLES
 LANDUSE TYPE = USGS FOUND          27  CATEGORIES
 INPUT SOIL TEXTURE CLASSIFICATION = STAS
 SOIL TEXTURE CLASSIFICATION = STAS FOUND          19  CATEGORIES
ThompMP: read qr_acr_qgV3.dat instead of computing
ThompMP: read qr_acr_qsV2.dat instead of computing
ThompMP: read freezeH2O.dat instead of computing
Timing for Writing wrfout_d01_2018-08-15_00:00:00 for domain        1:    0.28752 elapsed seconds
d01 2018-08-15_00:00:00  Input data is acceptable to use: force_ideal.nc
d01 2018-08-15_00:00:00 Input data processed for aux input   3 for domain   1
 Tile Strategy is not specified. Assuming 1D-Y
WRF TILE   1 IS      1 IE      3 JS      1 JE      3
WRF NUMBER OF TILES =   1
forrtl: severe (174): SIGSEGV, segmentation fault occurred
Image              PC                Routine            Line        Source             
wrf.exe            0000000002C30A9A  for__signal_handl     Unknown  Unknown
libpthread-2.30.s  00002B70CD6F10F0  Unknown               Unknown  Unknown
wrf.exe            0000000001DF6F43  Unknown               Unknown  Unknown
wrf.exe            000000000155DA23  Unknown               Unknown  Unknown
wrf.exe            000000000198206C  Unknown               Unknown  Unknown
wrf.exe            0000000001420FC4  Unknown               Unknown  Unknown
wrf.exe            0000000001252248  Unknown               Unknown  Unknown
wrf.exe            0000000000592518  Unknown               Unknown  Unknown
wrf.exe            0000000000412D81  Unknown               Unknown  Unknown
wrf.exe            0000000000412D3F  Unknown               Unknown  Unknown
wrf.exe            0000000000412CD2  Unknown               Unknown  Unknown
libc-2.30.so       00002B70CD721E1B  __libc_start_main     Unknown  Unknown
wrf.exe            0000000000412BEA  Unknown               Unknown  Unknown
