  Domain # 1: dx =  4000.000 m
--- ERROR: ghg_input available only for these radiation schemes: CAM, RRTM, RRTMG, RRTMG_fast
           And the LW and SW schemes must be reasonably paired together:
           OK = CAM LW with CAM SW
           OK = RRTM, RRTMG LW or SW, RRTMG_fast LW or SW may be mixed
WRF V4.4.2 MODEL
git commit 6233639c599119e76fca17dba9ea211af53a0ba9 11 files changed, 205 insertions(+), 163 deletions(-)
DYNAMICS OPTION: Eulerian Mass Coordinate
   alloc_space_field: domain            1 ,               16410276  bytes allocated
  med_initialdata_input: calling input_input
   Input data is acceptable to use: wrfinput_d01
 CURRENT DATE          = 2018-08-15_00:00:00
 SIMULATION START DATE = 2018-08-15_00:00:00
Timing for processing wrfinput file (stream 0) for domain        1:    0.16140 elapsed seconds
Max map factor in domain 1 =  1.00. Scale the dt in the model accordingly.
INPUT LandUse = "USGS"
 LANDUSE TYPE = "USGS" FOUND          61  CATEGORIES           2  SEASONS WATER CATEGORY =           16  SNOW CATEGORY =            0
INITIALIZE THREE Noah LSM RELATED TABLES
 LANDUSE TYPE = USGS FOUND          27  CATEGORIES
 INPUT SOIL TEXTURE CLASSIFICATION = STAS
 SOIL TEXTURE CLASSIFICATION = STAS FOUND          19  CATEGORIES
ThompMP: read qr_acr_qgV3.dat instead of computing
ThompMP: read qr_acr_qsV2.dat instead of computing
ThompMP: read freezeH2O.dat instead of computing
Timing for Writing wrfout_d01_2018-08-15_00:00:00 for domain        1:    0.36557 elapsed seconds
d01 2018-08-15_00:00:00  Input data is acceptable to use: force_ideal.nc
d01 2018-08-15_00:00:00 Input data processed for aux input   3 for domain   1
 Tile Strategy is not specified. Assuming 1D-Y
WRF TILE   1 IS      1 IE      3 JS      1 JE      3
WRF NUMBER OF TILES =   1
  1   0.000000000000000
  2   0.000000000000000
  3   0.000000000000000
  4   0.000000000000000
  5   0.000000000000000
  6   0.000000000000000
  7   0.000000000000000
  8   0.000000000000000
  9   0.000000000000000
 10   0.000000000000000
 11   0.000000000000000
 12   0.000000000000000
 13   0.000000000000000
 14   0.000000000000000
 15   0.000000000000000
 16   0.000000000000000
 17   0.000000000000000
 18   0.000000000000000
 19   0.000000000000000
 20   0.000000000000000
 21   0.000000000000000
 22   0.000000000000000
 23   0.000000000000000
 24   0.000000000000000
 25   0.000000000000000
 26   0.000000000000000
 27   0.000000000000000
 28   0.000000000000000
 29   0.000000000000000
 30   0.000000000000000
 31   0.000000000000000
 32   0.000000000000000
 33   0.000000000000000
 34   0.000000000000000
 35   0.000000000000000
 36   0.000000000000000
 37   0.000000000000000
 38   0.000000000000000
 39   0.000000000000000
 40   0.000000000000000
 41   0.000000000000000
 42   0.000000000000000
 43   0.000000000000000
 44   0.000000000000000
 45   0.000000000000000
 46   0.000000000000000
 47   0.000000000000000
 48   0.000000000000000
 49   0.000000000000000
 50   0.000000000000000
 51   0.000000000000000
 52   0.000000000000000
 53   0.000000000000000
 54   0.000000000000000
 55   0.000000000000000
 56   0.000000000000000
 57   0.000000000000000
 58   0.000000000000000
 59   0.000000000000000
 60   0.000000000000000
 61   0.000000000000000
 62   0.000000000000000
 63   0.000000000000000
 64   0.000000000000000
 65   0.000000000000000
 66   0.000000000000000
 67   0.000000000000000
 68   0.000000000000000
 69   0.000000000000000
 70   0.000000000000000
 71   0.000000000000000
 72   0.000000000000000
 73   0.000000000000000
 74   0.000000000000000
 75   0.000000000000000
 76   0.000000000000000
 77   0.000000000000000
 78   0.000000000000000
 79   0.000000000000000
 80   0.000000000000000
 81   0.000000000000000
 82   0.000000000000000
 83   0.000000000000000
 84   0.000000000000000
 85   0.000000000000000
 86   0.000000000000000
 87   0.000000000000000
 88   0.000000000000000
 89   0.000000000000000
 90   0.000000000000000
 91   0.000000000000000
 92   0.000000000000000
 93   0.000000000000000
 94   0.000000000000000
 95   0.000000000000000
 96   0.000000000000000
 97   0.000000000000000
 98   0.000000000000000
 99   0.000000000000000
100   0.000000000000000
d01 2018-08-15_00:00:00  ----------------------------------------
d01 2018-08-15_00:00:00  W-DAMPING  BEGINS AT W-COURANT NUMBER =    1.000000
d01 2018-08-15_00:00:00  ----------------------------------------
Timing for main: time 2018-08-15_00:00:24 on domain   1:    0.43546 elapsed seconds
forrtl: severe (174): SIGSEGV, segmentation fault occurred
Image              PC                Routine            Line        Source             
wrf.exe            0000000002C3C6AA  for__signal_handl     Unknown  Unknown
libpthread-2.30.s  00002B3AD81190F0  Unknown               Unknown  Unknown
wrf.exe            0000000002AD74F7  Unknown               Unknown  Unknown
wrf.exe            0000000002AD395B  Unknown               Unknown  Unknown
wrf.exe            0000000002AD1487  Unknown               Unknown  Unknown
wrf.exe            00000000020855AF  Unknown               Unknown  Unknown
wrf.exe            0000000001904757  Unknown               Unknown  Unknown
wrf.exe            0000000001428364  Unknown               Unknown  Unknown
wrf.exe            00000000012595E8  Unknown               Unknown  Unknown
wrf.exe            000000000059328C  Unknown               Unknown  Unknown
wrf.exe            0000000000412D81  Unknown               Unknown  Unknown
wrf.exe            0000000000412D3F  Unknown               Unknown  Unknown
wrf.exe            0000000000412CD2  Unknown               Unknown  Unknown
libc-2.30.so       00002B3AD8149E1B  __libc_start_main     Unknown  Unknown
wrf.exe            0000000000412BEA  Unknown               Unknown  Unknown
