  Domain # 1: dx =  4000.000 m
WRF V4.4.2 MODEL
git commit 6233639c599119e76fca17dba9ea211af53a0ba9 11 files changed, 205 insertions(+), 163 deletions(-)
DYNAMICS OPTION: Eulerian Mass Coordinate
   alloc_space_field: domain            1 ,               16426480  bytes allocated
  med_initialdata_input: calling input_input
   Input data is acceptable to use: wrfinput_d01
 CURRENT DATE          = 2018-08-15_00:00:00
 SIMULATION START DATE = 2018-08-15_00:00:00
Timing for processing wrfinput file (stream 0) for domain        1:    0.21373 elapsed seconds
Max map factor in domain 1 =  1.00. Scale the dt in the model accordingly.
INPUT LandUse = "USGS"
 LANDUSE TYPE = "USGS" FOUND          61  CATEGORIES           2  SEASONS WATER CATEGORY =           16  SNOW CATEGORY =            0
INITIALIZE THREE Noah LSM RELATED TABLES
 LANDUSE TYPE = USGS FOUND          27  CATEGORIES
 INPUT SOIL TEXTURE CLASSIFICATION = STAS
 SOIL TEXTURE CLASSIFICATION = STAS FOUND          19  CATEGORIES
 
  P3 microphysics: v4.3.3
    P3_INIT (reading/creating lookup tables)
      Reading table 1 [5.3-2momI] ...
forrtl: No such file or directory
forrtl: severe (29): file not found, unit 10, file /scratch/piyush31/SCM-WRF/test/em_scm_xy/./p3_lookupTable_1.dat-5.3-2momI
Image              PC                Routine            Line        Source             
wrf.exe            0000000002C31EBB  for__io_return        Unknown  Unknown
wrf.exe            0000000002C4D950  for_open              Unknown  Unknown
wrf.exe            0000000001BFD711  Unknown               Unknown  Unknown
wrf.exe            0000000002051EF3  Unknown               Unknown  Unknown
wrf.exe            000000000203CB37  Unknown               Unknown  Unknown
wrf.exe            00000000019DC98C  Unknown               Unknown  Unknown
wrf.exe            00000000014A79C3  Unknown               Unknown  Unknown
wrf.exe            000000000135DA26  Unknown               Unknown  Unknown
wrf.exe            0000000000413ED7  Unknown               Unknown  Unknown
wrf.exe            0000000000412D35  Unknown               Unknown  Unknown
wrf.exe            0000000000412CD2  Unknown               Unknown  Unknown
libc-2.30.so       00002B1317F70E1B  __libc_start_main     Unknown  Unknown
wrf.exe            0000000000412BEA  Unknown               Unknown  Unknown
